MOM_SIS_TOPAZ
1 1 1 0 0 0
## output files
#"atmos_daily",           24,  "hours",  1, "days", "time",
#"atmos_8xdaily",          3,  "hours",  1, "days", "time",
#"atmos_8xdaily_instant",  3,  "hours",  1, "days", "time",
#"atmos_instant",          1,  "months", 1, "days", "time",
#"atmos_level",            1,  "months", 1, "days", "time",
#"atmos_level_instant",    1,  "months", 1, "days", "time",
#"atmos_month",            1,  "months", 1, "days", "time",
#"atmos_month_aer",        1,  "months", 1, "days", "time",
#"atmos_scalar",           1,  "months", 1, "days", "Time",
#"frac_month",             1, "months", 1, "days", "time",  
#"generic_tracer_day",    12,  "hours",  1, "days", "Time"
#"grid_spec",             -1,  "months", 1, "days", "time",
"ice_daily",             24,  "hours",  1, "days", "time",
"ice_month",              1,  "months", 1, "days", "time",
"icebergs_month",         1,  "months", 1, "days", "time",
#"land_daily",            24,  "hours",  1, "days", "time",
#"land_daily_inst",        1,  "days",   1, "days", "time",  
#"land_8xdaily",           3,  "hours",  1, "days", "time",
#"land_inst_month",        1,  "months", 1, "days", "time",
#"land_month",             1,  "months", 1, "days", "time",
#"land_month_inst",        1,  "months", 1, "days", "time",  
#"land_static",           -1,  "months", 1, "days", "time",
"ocean_daily",           24,  "hours",  1, "days", "time",
"ocean_month",            1,  "months", 1, "days", "time"
#"ocean_month_z",          1,  "months", 1, "days", "time"
"ocean_scalar",           1,  "months", 1, "days", "time"
"ocean_topaz_diag",             24,  "hours",  1, "days", "time",
"ocean_topaz_fluxes",             24,  "hours",  1, "days", "time",
"ocean_topaz_instant",             24,  "hours",  1, "days", "time",
"ocean_topaz_misc",             24,  "hours",  1, "days", "time",
"ocean_topaz_rates",             24,  "hours",  1, "days", "time",
"ocean_topaz_tracers",             24,  "hours",  1, "days", "time",
#"ocean_topaz_diag",       1,  "months", 1, "days", "time",
#"ocean_topaz_fluxes",     1,  "months", 1, "days", "time",
#"ocean_topaz_instant",    1,  "months", 1, "days", "time",
#"ocean_topaz_misc",       1,  "months", 1, "days", "time",
"ocean_topaz_month",      1,  "months", 1, "days", "time",
#"ocean_topaz_rates",      1,  "months", 1, "days", "time",
#"ocean_topaz_tracers",    1,  "months", 1, "days", "time",
#"ocean_topaz_tracers_z",  1,  "months", 1, "days", "time",
#"ocean_tracers",          1,  "months", 1, "days", "time",
#"river_daily",           24,  "hours",  1, "days", "time",
#"river_inst_month",       1,  "months", 1, "days", "time",
#"river_month",            1,  "months", 1, "days", "time",
#"river_static",          -1,  "months", 1, "days", "time",
#"stocks",                 0,  "days",   1, "days", "time",
#
## output variables
#
#================
# Iceberg fields:
#================
"icebergs","lon","lon"                       ,"icebergs_month","all",.true.,"none",2
"icebergs","lat","lat"                       ,"icebergs_month","all",.true.,"none",2
"icebergs","area","area"                     ,"icebergs_month","all",.true.,"none",2
"icebergs","mask","mask"                     ,"icebergs_month","all",.true.,"none",2
"icebergs","uo","uo"                         ,"icebergs_month","all",.true.,"none",2
"icebergs","vo","vo"                         ,"icebergs_month","all",.true.,"none",2
"icebergs","ui","ui"                         ,"icebergs_month","all",.true.,"none",2
"icebergs","vi","vi"                         ,"icebergs_month","all",.true.,"none",2
"icebergs","ua","ua"                         ,"icebergs_month","all",.true.,"none",2
"icebergs","va","va"                         ,"icebergs_month","all",.true.,"none",2
"icebergs","sst","sst"                       ,"icebergs_month","all",.true.,"none",2
"icebergs","cn","cn"                         ,"icebergs_month","all",.true.,"none",2
"icebergs","hi","hi"                         ,"icebergs_month","all",.true.,"none",2
"icebergs","melt","melt"                     ,"icebergs_month","all",.true.,"none",2
"icebergs","melt_buoy","melt_buoy"           ,"icebergs_month","all",.true.,"none",2
"icebergs","melt_eros","melt_eros","icebergs_month","all",.true.,"none",2
"icebergs","melt_conv","melt_conv"           ,"icebergs_month","all",.true.,"none",2
"icebergs","bergy_src","bergy_src"           ,"icebergs_month","all",.true.,"none",2
"icebergs","bergy_melt","bergy_melt"         ,"icebergs_month","all",.true.,"none",2
"icebergs","bergy_mass","bergy_mass"         ,"icebergs_month","all",.true.,"none",2
"icebergs","virtual_area","virtual_area"     ,"icebergs_month","all",.true.,"none",2
"icebergs","mass","mass"                     ,"icebergs_month","all",.true.,"none",2
"icebergs","calving","calving"               ,"icebergs_month","all",.true.,"none",2
"icebergs","unused_calving","unused_calving" ,"icebergs_month","all",.true.,"none",2
"icebergs","accum_calving","accum_calving"   ,"icebergs_month","all",.true.,"none",2
"icebergs","stored_ice","stored_ice"         ,"icebergs_month","all",.true.,"none",2
#
#==================
# OCEAN DIAGNOSTICS (MOM4P1)
#==================
#
#==========================================================================
# ocean grid quantities
 "ocean_model","area_t","area_t" ,"ocean_month","all",.false.,"none",2
 "ocean_model","area_u","area_u" ,"ocean_month","all",.false.,"none",2
 "ocean_model","kmt","kmt"       ,"ocean_month","all",.false.,"none",2
 "ocean_model","kmu","kmu"       ,"ocean_month","all",.false.,"none",2
#
 "ocean_model","dzt","dht"          ,"ocean_month","all",.true.,"none",2
 "ocean_model","rho_dzt","rho_dzt"  ,"ocean_month","all",.true.,"none",2
 "ocean_model","dzu","dhu"          ,"ocean_month","all",.true.,"none",2
 "ocean_model","dst","dst"          ,"ocean_month","all",.true.,"none",2
#
 "ocean_model","geolat_c","geolat_c"                    ,"ocean_month","all",.false.,"none",2
 "ocean_model","geolon_c","geolon_c"                    ,"ocean_month","all",.false.,"none",2
 "ocean_model","geolat_t","geolat_t"                    ,"ocean_month","all",.false.,"none",2
 "ocean_model","geolon_t","geolon_t"                    ,"ocean_month","all",.false.,"none",2
 "ocean_model","ht","ht"                                ,"ocean_month","all",.false.,"none",2
 "ocean_model","hu","hu"                                ,"ocean_month","all",.false.,"none",2
 "ocean_model","rescale_rho0_mask","rescale_rho0_mask"  ,"ocean_month","all",.false.,"none",2
#
 "ocean_model","geolat_c","geolat_c","ocean_daily","all",.false.,"none",2
 "ocean_model","geolon_c","geolon_c","ocean_daily","all",.false.,"none",2
 "ocean_model","geolat_t","geolat_t","ocean_daily","all",.false.,"none",2
 "ocean_model","geolon_t","geolon_t","ocean_daily","all",.false.,"none",2
#
#==========================================================================
## global integrated ocean surface fluxes 
"ocean_model","total_ocean_pme_river","total_ocean_pme_river"                ,"ocean_scalar","all",.true.,"none",2
"ocean_model","total_ocean_river","total_ocean_river"                        ,"ocean_scalar","all",.true.,"none",2
"ocean_model","total_ocean_evap","total_ocean_evap"                          ,"ocean_scalar","all",.true.,"none",2
"ocean_model","total_ocean_pme_sbc","total_ocean_pme_sbc"                    ,"ocean_scalar","all",.true.,"none",2
"ocean_model","total_ocean_fprec","total_ocean_fprec"                        ,"ocean_scalar","all",.true.,"none",2
"ocean_model","total_ocean_lprec","total_ocean_lprec"                        ,"ocean_scalar","all",.true.,"none",2
"ocean_model","total_ocean_calving","total_ocean_calving"                    ,"ocean_scalar","all",.true.,"none",2
"ocean_model","total_ocean_runoff","total_ocean_runoff"                      ,"ocean_scalar","all",.true.,"none",2
"ocean_model","total_ocean_salt","total_ocean_salt"                          ,"ocean_scalar","all",.true.,"none",2
"ocean_model","total_ocean_heat","total_ocean_heat"                          ,"ocean_scalar","all",.true.,"none",2
"ocean_model","total_ocean_hflux_pme","total_ocean_hflux_pme"                ,"ocean_scalar","all",.true.,"none",2
"ocean_model","total_ocean_hflux_runoff","total_ocean_hflux_runoff"          ,"ocean_scalar","all",.true.,"none",2
"ocean_model","total_ocean_swflx","total_ocean_swflx"                        ,"ocean_scalar","all",.true.,"none",2
"ocean_model","total_ocean_swflx_vis","total_ocean_swflx_vis"                ,"ocean_scalar","all",.true.,"none",2
"ocean_model","total_ocean_evap_heat","total_ocean_evap_heat"                ,"ocean_scalar","all",.true.,"none",2
"ocean_model","total_ocean_lw_heat","total_ocean_lw_heat"                    ,"ocean_scalar","all",.true.,"none",2
"ocean_model","total_ocean_sens_heat","total_ocean_sens_heat"                ,"ocean_scalar","all",.true.,"none",2
"ocean_model","total_ocean_fprec_melt_heat","total_ocean_fprec_melt_heat"    ,"ocean_scalar","all",.true.,"none",2
"ocean_model","total_ocean_calving_heat","total_ocean_calving_heat"          ,"ocean_scalar","all",.true.,"none",2
"ocean_model","total_ocean_calving_melt_heat","total_ocean_calving_melt_heat","ocean_scalar","all",.true.,"none",2
"ocean_model","total_ocean_runoff_heat","total_ocean_runoff_heat"            ,"ocean_scalar","all",.true.,"none",2
#
#==========================================================================
# surface flux quantities
 "ocean_model","geo_heat","geo_heat"                                        ,"ocean_month","all",.false.,"none",2
 "ocean_model","frazil_2d","frazil_2d"                                      ,"ocean_month","all",.true.,"none",2
 "ocean_model","pme_sbc","pme_mass"                                         ,"ocean_month","all",.true.,"none",2
 "ocean_model","pme_river","pme_river"                                      ,"ocean_month","all",.true.,"none",2
 "ocean_model","pme_velocity","pme"                                         ,"ocean_month","all",.true.,"none",2
 "ocean_model","runoff","runoff"                                            ,"ocean_month","all",.true.,"none",2
 "ocean_model","melt","melt"                                                ,"ocean_month","all",.true.,"none",2
 "ocean_model","calving","calving"                                          ,"ocean_month","all",.true.,"none",2
 "ocean_model","river","river"                                              ,"ocean_month","all",.true.,"none",2
 "ocean_model","evap","evap"                                                ,"ocean_month","all",.true.,"none",2
 "ocean_model","fprec","fprec"                                              ,"ocean_month","all",.true.,"none",2
 "ocean_model","lprec","lprec"                                              ,"ocean_month","all",.true.,"none",2
 "ocean_model","swflx","swflx"                                              ,"ocean_month","all",.true.,"none",2
 "ocean_model","swflx_vis","swflx_vis"                                      ,"ocean_month","all",.true.,"none",2
 "ocean_model","sw_heat","sw_heat"                                          ,"ocean_month","all",.true.,"none",2
# "ocean_model","sw_frac","sw_frac"                                         ,"ocean_month","all",.true.,"none",2
# "ocean_model","f_vis","f_vis"                                             ,"ocean_month","all",.true.,"none",2
 "ocean_model","evap_heat","evap_heat"                                      ,"ocean_month","all",.true.,"none",2
 "ocean_model","sfc_hflux_from_runoff","sfc_hflux_from_runoff"              ,"ocean_month","all",.true.,"none",2
 "ocean_model","sfc_hflux_from_water_evap","sfc_hflux_from_water_evap"      ,"ocean_month","all",.true.,"none",2
 "ocean_model","sfc_hflux_from_water_precip","sfc_hflux_from_water_precip"  ,"ocean_month","all",.true.,"none",2
 "ocean_model","fprec_heat","fprec_heat"                                    ,"ocean_month","all",.true.,"none",2
 "ocean_model","calving_heat","calving_heat"                                ,"ocean_month","all",.true.,"none",2
 "ocean_model","lw_heat","lw_heat"                                          ,"ocean_month","all",.true.,"none",2
 "ocean_model","sens_heat","sens_heat"                                      ,"ocean_month","all",.true.,"none",2
 "ocean_model","sfc_hflux","sfc_hflux"                                      ,"ocean_month","all",.true.,"none",2
 "ocean_model","sfc_hflux_river","sfc_hflux_river"                          ,"ocean_month","all",.true.,"none",2
 "ocean_model","sfc_hflux_pme","sfc_hflux_pme"                              ,"ocean_month","all",.true.,"none",2
 "ocean_model","sfc_salt_flux","sfc_salt_flux"                              ,"ocean_month","all",.true.,"none",2
 "ocean_model","sfc_salt_flux_river","sfc_salt_flux_river"                  ,"ocean_month","all",.true.,"none",2
 "ocean_model","sfc_salt_flux_ice","sfc_salt_flux_ice"                      ,"ocean_month","all",.true.,"none",2
 "ocean_model","tau_x","tau_x"                                              ,"ocean_month","all",.true.,"none",2
 "ocean_model","tau_y","tau_y"                                              ,"ocean_month","all",.true.,"none",2
 "ocean_model","tau_curl","tau_curl"                                        ,"ocean_month","all",.true.,"none",2
 "ocean_model","ekman_we","ekman_we"                                        ,"ocean_month","all",.true.,"none",2
 "ocean_model","salt_calvingmix","salt_calvingmix"                          ,"ocean_month","all",.true.,"none",2
 "ocean_model","temp_calvingmix","temp_calvingmix"                          ,"ocean_month","all",.true.,"none",2
 "ocean_model","temp_runoffmix","temp_runoffmix"                            ,"ocean_month","all",.true.,"none",2
 "ocean_model","temp_rivermix","temp_rivermix"                              ,"ocean_month","all",.true.,"none",2
 "ocean_model","temp_runoff","temp_runoff"                                  ,"ocean_month","all",.true.,"none",2
 "ocean_model","temp_calving","temp_calving"                                ,"ocean_month","all",.true.,"none",2
#
#==========================================================================
# global integrated/averaged ocean fields 
"ocean_model","total_mass_seawater","total_mass_seawater"      ,"ocean_scalar","all",.true.,"none",2
"ocean_model","total_volume_seawater","total_volume_seawater"  ,"ocean_scalar","all",.true.,"none",2
"ocean_model","ke_tot","ke_tot"                                ,"ocean_scalar","all",.true.,"none",2
"ocean_model","pe_tot","pe_tot"                                ,"ocean_scalar","all",.true.,"none",2
"ocean_model","temp_surface_ave","temp_surface_ave"            ,"ocean_scalar","all",.true.,"none",2
"ocean_model","salt_surface_ave","salt_surface_ave"            ,"ocean_scalar","all",.true.,"none",2
"ocean_model","temp_global_ave","temp_global_ave"              ,"ocean_scalar","all",.true.,"none",2
"ocean_model","salt_global_ave","salt_global_ave"              ,"ocean_scalar","all",.true.,"none",2
"ocean_model","pbot_adjust","pbot_adjust"                      ,"ocean_scalar","all",.true.,"none",2
"ocean_model","eta_adjust","eta_adjust"                        ,"ocean_scalar","all",.true.,"none",2
#
#==========================================================================
# sea level components globally integrated 
"ocean_model","eta_global","eta_global"                       ,"ocean_scalar","all",.true.,"none",2
"ocean_model","eta_nonbouss_global","eta_nonbouss_global"     ,"ocean_scalar","all",.true.,"none",2
"ocean_model","eta_steric_global","eta_steric_global"         ,"ocean_scalar","all",.true.,"none",2
"ocean_model","eta_nonsteric_global","eta_nonsteric_global"   ,"ocean_scalar","all",.true.,"none",2
"ocean_model","eta_dynamic_global","eta_dynamic_global"       ,"ocean_scalar","all",.true.,"none",2
"ocean_model","eta_water_global","eta_water_global"           ,"ocean_scalar","all",.true.,"none",2
"ocean_model","eta_source_global","eta_source_global"         ,"ocean_scalar","all",.true.,"none",2
"ocean_model","eta_surf_temp_global","eta_surf_temp_global"   ,"ocean_scalar","all",.true.,"none",2
"ocean_model","eta_surf_salt_global","eta_surf_salt_global"   ,"ocean_scalar","all",.true.,"none",2
"ocean_model","eta_surf_water_global","eta_surf_water_global" ,"ocean_scalar","all",.true.,"none",2
"ocean_model","eta_bott_temp_global","eta_bott_temp_global"   ,"ocean_scalar","all",.true.,"none",2
#
#==========================================================================
# sea level forcings globally integrated 
"ocean_model","eta_tend_global","eta_tend_global"                     ,"ocean_scalar","all",.true.,"none",2
"ocean_model","eta_dynamic_tend_global","eta_dynamic_tend_global"     ,"ocean_scalar","all",.true.,"none",2
"ocean_model","eta_water_tend_global","eta_water_tend_global"         ,"ocean_scalar","all",.true.,"none",2
"ocean_model","eta_steric_tend_global","eta_steric_tend_global"       ,"ocean_scalar","all",.true.,"none",2
"ocean_model","eta_nonsteric_tend_global","eta_nonsteric_tend_global" ,"ocean_scalar","all",.true.,"none",2
"ocean_model","eta_source_tend_global","eta_source_tend_global"       ,"ocean_scalar","all",.true.,"none",2
"ocean_model","eta_smooth_tend_global","eta_smooth_tend_global"       ,"ocean_scalar","all",.true.,"none",2
"ocean_model","eta_water_forcing_global","eta_water_forcing_global"   ,"ocean_scalar","all",.true.,"none",2
"ocean_model","eta_stemp_forcing_global","eta_stemp_forcing_global"   ,"ocean_scalar","all",.true.,"none",2
"ocean_model","eta_salt_forcing_global","eta_salt_forcing_global"     ,"ocean_scalar","all",.true.,"none",2
"ocean_model","eta_btemp_forcing_global","eta_btemp_forcing_global"   ,"ocean_scalar","all",.true.,"none",2
"ocean_model","rhobarz_global","rhobarz_global"                       ,"ocean_scalar","all",.true.,"none",2
#
#==========================================================================
# 2d surface and bottom pressure fields 
 "ocean_model","patm_t","patm_t" ,"ocean_month","all",.true.,"none",2
 "ocean_model","pbot0","pbot0"   ,"ocean_month","all",.false.,"none",2
 "ocean_model","anompb","anompb" ,"ocean_month","all",.true.,"none",2
 "ocean_model","pbot_t","pbot_t" ,"ocean_month","all",.true.,"none",2
#
#==========================================================================
# 2d surface height related fields
 "ocean_model","eta_t","eta_t"                            ,"ocean_month","all",.true.,"none",2
 "ocean_model","sea_level","sea_level"                    ,"ocean_month","all",.true.,"none",2
 "ocean_model","sea_level_sq","sea_level_sq"              ,"ocean_month","all",.true.,"none",2
 "ocean_model","eta_u","eta_u"                            ,"ocean_month","all",.true.,"none",2
 "ocean_model","eta_nonbouss","eta_nonbouss"              ,"ocean_month","all",.true.,"none",2
 "ocean_model","eta_nonsteric","eta_nonsteric"            ,"ocean_month","all",.true.,"none",2
 "ocean_model","eta_steric","eta_steric"                  ,"ocean_month","all",.true.,"none",2
 "ocean_model","eta_water","eta_water"                    ,"ocean_month","all",.true.,"none",2
 "ocean_model","eta_dynamic","eta_dynamic"                ,"ocean_month","all",.true.,"none",2
 "ocean_model","eta_source","eta_source"                  ,"ocean_month","all",.true.,"none",2
 "ocean_model","eta_surf_temp","eta_surf_temp"            ,"ocean_month","all",.true.,"none",2
 "ocean_model","eta_surf_salt","eta_surf_salt"            ,"ocean_month","all",.true.,"none",2
 "ocean_model","eta_surf_water","eta_surf_water"          ,"ocean_month","all",.true.,"none",2
 "ocean_model","eta_bott_temp","eta_bott_temp"            ,"ocean_month","all",.true.,"none",2
 "ocean_model","eta_tend","eta_tend"                      ,"ocean_month","all",.true.,"none",2
 "ocean_model","eta_dynamic_tend","eta_dynamic_tend"      ,"ocean_month","all",.true.,"none",2
 "ocean_model","eta_water_tend","eta_water_tend"          ,"ocean_month","all",.true.,"none",2
 "ocean_model","eta_steric_tend","eta_steric_tend"        ,"ocean_month","all",.true.,"none",2
 "ocean_model","eta_nonsteric_tend","eta_nonsteric_tend"  ,"ocean_month","all",.true.,"none",2
 "ocean_model","eta_source_tend","eta_source_tend"        ,"ocean_month","all",.true.,"none",2
 "ocean_model","eta_smooth_tend","eta_smooth_tend"        ,"ocean_month","all",.true.,"none",2
 "ocean_model","eta_stemp_forcing","eta_stemp_forcing"    ,"ocean_month","all",.true.,"none",2
 "ocean_model","eta_btemp_forcing","eta_btemp_forcing"    ,"ocean_month","all",.true.,"none",2
 "ocean_model","eta_salt_forcing","eta_salt_forcing"      ,"ocean_month","all",.true.,"none",2
 "ocean_model","eta_water_forcing","eta_water_forcing"    ,"ocean_month","all",.true.,"none",2
 "ocean_model","rhobarz","rhobarz"                        ,"ocean_month","all",.true.,"none",2
 "ocean_model","conv_rho_ud_t","conv_rho_ud_t"            ,"ocean_month","all",.true.,"none",2
 "ocean_model","urhod","urhod"                            ,"ocean_month","all",.true.,"none",2
 "ocean_model","vrhod","vrhod"                            ,"ocean_month","all",.true.,"none",2
#
#==========================================================================
# 2d surface and bottom fields daily output
 "ocean_model","eta_t","eta_t"                  ,"ocean_daily","all",.true.,"none",2
 "ocean_model","eta_t_sq","eta_t_sq"            ,"ocean_daily","all",.true.,"none",2
 "ocean_model","surface_salt","sss"             ,"ocean_daily","all",.true.,"none",2
 "ocean_model","surface_temp","sst"             ,"ocean_daily","all",.true.,"none",2
 "ocean_model","squared_surface_temp","sst_sq"  ,"ocean_daily","all",.true.,"none",2
 "ocean_model","usurf","u_surf"                 ,"ocean_daily","all",.true.,"none",2
 "ocean_model","vsurf","v_surf"                 ,"ocean_daily","all",.true.,"none",2
 "ocean_model","patm_t","patm_t"                ,"ocean_daily","all",.true.,"none",2
 "ocean_model","anompb","anompb"                ,"ocean_daily","all",.true.,"none",2
 "ocean_model","pbot_t","pbot_t"                ,"ocean_daily","all",.true.,"none",2
 "ocean_model","hblt","hblt_max"                ,"ocean_daily","all",  max ,"none",2
## added 2009/04/09
 "ocean_model","patm_for_sea_lev"   ,"patm_for_sea_lev"     ,"ocean_daily","all",  .true. ,"none",2
 "ocean_model","sea_lev_for_coupler","sea_lev_for_coupler"  ,"ocean_daily","all",  .true. ,"none",2
#
#==========================================================================
# 2d surface and bottom fields monthly output
 "ocean_model","surface_temp","sst"                    ,"ocean_month","all",.true.,"none",2
 "ocean_model","squared_surface_temp","sst_sq"         ,"ocean_month","all",.true.,"none",2
 "ocean_model","surface_salt","sss"                    ,"ocean_month","all",.true.,"none",2
 "ocean_model","usurf","u_surf"                        ,"ocean_month","all",.true.,"none",2
 "ocean_model","vsurf","v_surf"                        ,"ocean_month","all",.true.,"none",2
 "ocean_model","ubott","u_bott"                        ,"ocean_month","all",.true.,"none",2
 "ocean_model","vbott","v_bott"                        ,"ocean_month","all",.true.,"none",2
 "ocean_model","bottom_temp","bottom_temp"             ,"ocean_month","all",.true.,"none",2
 "ocean_model","bottom_salt","bottom_salt"             ,"ocean_month","all",.true.,"none",2
 "ocean_model","bottom_age_global","bottom_age_global" ,"ocean_month","all",.true.,"none",2
#
#==========================================================================
# 3d tracer and velocity fields 
 "ocean_model","age_global","age_global"     ,"ocean_month","all",.true.,"none",2
 "ocean_model","salt","salt"                 ,"ocean_month","all",.true.,"none",2
# "ocean_model","salt_rhodzt","salt_rhodzt"  ,"ocean_month","all",.true.,"none",2
 "ocean_model","temp","temp"                 ,"ocean_month","all",.true.,"none",2
# "ocean_model","temp_rhodzt","temp_rhodzt"  ,"ocean_month","all",.true.,"none",2
 "ocean_model","con_temp","con_temp"         ,"ocean_month","all",.true.,"none",2
# "ocean_model","pot_temp","temp"            ,"ocean_month","all",.true.,"none",2
 "ocean_model","u","u"                       ,"ocean_month","all",.true.,"none",2
 "ocean_model","v","v"                       ,"ocean_month","all",.true.,"none",2
#
#==========================================================================
# 3d salt/temp fluxes and tendencies
 "ocean_model","temp_xflux_adv","temp_xflux_adv"         ,"ocean_month","all",.true.,"none",2
 "ocean_model","temp_yflux_adv","temp_yflux_adv"         ,"ocean_month","all",.true.,"none",2
 "ocean_model","temp_zflux_adv","temp_zflux_adv"         ,"ocean_month","all",.true.,"none",2
 "ocean_model","salt_xflux_adv","salt_xflux_adv"         ,"ocean_month","all",.true.,"none",2
 "ocean_model","salt_yflux_adv","salt_yflux_adv"         ,"ocean_month","all",.true.,"none",2
 "ocean_model","salt_zflux_adv","salt_zflux_adv"         ,"ocean_month","all",.true.,"none",2
 "ocean_model","temp_vdiffuse_impl","temp_vdiffuse_impl" ,"ocean_month","all",.true.,"none",2
 "ocean_model","salt_vdiffuse_impl","salt_vdiffuse_impl" ,"ocean_month","all",.true.,"none",2
 "ocean_model","temp_tendency","temp_tendency"           ,"ocean_month","all",.true.,"none",2
 "ocean_model","salt_tendency","salt_tendency"           ,"ocean_month","all",.true.,"none",2
 "ocean_model","temp_tendency_expl","temp_tendency_expl" ,"ocean_month","all",.true.,"none",2
 "ocean_model","salt_tendency_expl","salt_tendency_expl" ,"ocean_month","all",.true.,"none",2
 "ocean_model","neutral_temp","neutral_temp"             ,"ocean_month","all",.true.,"none",2
 "ocean_model","neutral_salt","neutral_salt"             ,"ocean_month","all",.true.,"none",2
 "ocean_model","temp_submeso","temp_submeso"             ,"ocean_month","all",.true.,"none",2
 "ocean_model","salt_submeso","salt_submeso"             ,"ocean_month","all",.true.,"none",2
#
#==========================================================================
## 2d and 3d physics fields of diagnostic interest 
 "ocean_model","hblt","hblt_max"                     ,"ocean_month","all",   max,"none",2
 "ocean_model","mld","mld"                           ,"ocean_month","all",.true.,"none",2
 "ocean_model","mld_sq","mld_sq"                     ,"ocean_month","all",.true.,"none",2
 "ocean_model","neutral_rho","neutral_rho"           ,"ocean_month","all",.true.,"none",2
 "ocean_model","pot_rho_2","pot_rho_2"               ,"ocean_month","all",.true.,"none",2
 "ocean_model","pot_rho_0","pot_rho_0"               ,"ocean_month","all",.true.,"none",2
 "ocean_model","rho","rho"                           ,"ocean_month","all",.true.,"none",2
 "ocean_model","potrho_mix_base","potrho_mix_base"   ,"ocean_month","all",.true.,"none",2
 "ocean_model","potrho_mix_depth","potrho_mix_depth" ,"ocean_month","all",.true.,"none",2
 "ocean_model","press","press"                       ,"ocean_month","all",.true.,"none",2
 "ocean_model","wt","wt"                             ,"ocean_month","all",.true.,"none",2
 "ocean_model","wrhot","wrhot"                       ,"ocean_month","all",.true.,"none",2
 "ocean_model","drhodtheta","drhodtheta"             ,"ocean_month","all",.true.,"none",2
 "ocean_model","drhodsalinity","drhodsalinity"       ,"ocean_month","all",.true.,"none",2
 "ocean_model","cabbeling","cabbeling"               ,"ocean_month","all",.true.,"none",2
 "ocean_model","thermobaricity","thermobaricity"     ,"ocean_month","all",.true.,"none",2
#
#==========================================================================
# 2d vertically-integrated fluxes
 "ocean_model","salt_adv_flux_x_int_z","salt_adv_flux_x_int_z"        ,"ocean_month","all",.true.,"none",2
 "ocean_model","salt_adv_flux_y_int_z","salt_adv_flux_y_int_z"        ,"ocean_month","all",.true.,"none",2
 "ocean_model","salt_xflux_neutral_int_z","salt_xflux_neutral_int_z"  ,"ocean_month","all",.true.,"none",2
 "ocean_model","salt_yflux_neutral_int_z","salt_yflux_neutral_int_z"  ,"ocean_month","all",.true.,"none",2
 "ocean_model","temp_adv_flux_x_int_z","temp_adv_flux_x_int_z"        ,"ocean_month","all",.true.,"none",2
 "ocean_model","temp_adv_flux_y_int_z","temp_adv_flux_y_int_z"        ,"ocean_month","all",.true.,"none",2
 "ocean_model","temp_xflux_neutral_int_z","temp_xflux_neutral_int_z"  ,"ocean_month","all",.true.,"none",2
 "ocean_model","temp_yflux_neutral_int_z","temp_yflux_neutral_int_z"  ,"ocean_month","all",.true.,"none",2
 "ocean_model","temp_sigma_diff_xflux_int_z","temp_xflux_sigma"       ,"ocean_month","all",.true.,"none",2
 "ocean_model","temp_sigma_diff_yflux_int_z","temp_yflux_sigma"       ,"ocean_month","all",.true.,"none",2
 "ocean_model","temp_yflux_submeso_int_z","temp_yflux_submeso_int_z"  ,"ocean_month","all",.true.,"none",2
 "ocean_model","temp_xflux_submeso_int_z","temp_xflux_submeso_int_z"  ,"ocean_month","all",.true.,"none",2
#
#==========================================================================
# 3d mass transport
 "ocean_model","tx_trans","tx_trans"                 ,"ocean_month","all",.true.,"none",2
 "ocean_model","ty_trans","ty_trans"                 ,"ocean_month","all",.true.,"none",2
 "ocean_model","tz_trans","tz_trans"                 ,"ocean_month","all",.true.,"none",2
 "ocean_model","tz_trans_sq","tz_trans_sq"           ,"ocean_month","all",.true.,"none",2
 "ocean_model","tx_trans_gm","tx_trans_gm"           ,"ocean_month","all",.true.,"none",2
 "ocean_model","ty_trans_gm","ty_trans_gm"           ,"ocean_month","all",.true.,"none",2
 "ocean_model","tx_trans_rho","tx_trans_rho"         ,"ocean_month","all",.true.,"none",2
 "ocean_model","ty_trans_rho","ty_trans_rho"         ,"ocean_month","all",.true.,"none",2
 "ocean_model","tx_trans_rho_gm","tx_trans_rho_gm"   ,"ocean_month","all",.true.,"none",2
 "ocean_model","ty_trans_rho_gm","ty_trans_rho_gm"   ,"ocean_month","all",.true.,"none",2
 "ocean_model","tx_trans_submeso","tx_trans_submeso" ,"ocean_month","all",.true.,"none",2